[General]
network = TreeTopologyOBS
sim-time-limit = 0.5s
cmdenv-performance-display = true

**.vector-recording = false #Disable all vectors
**.horizonVec.vector-recording = true

**.reportFile = ""

# General parameters 
#======================

# Disable all scalars (when possible)
**.scalar-recording = false

#Guard time for Edge and Core Nodes
**.edge*.**.guardTime = 0.000000001s	# Tx time for 1 bit of data
**.core*.**.guardTime = 0.000000001s

# Edge Nodes Initialization
#==========================

#Full wavelength conversion
**.edge*.outColours = ""

**.edge*.**.dispatcherRules = "DispatcherRules.dat"
**.numFileBurstifiers = 0
**.edge*.**.numPacketBurstifiers = 5 # Burstifiers enabled only for Edge 1

#Burstifier configuration. Everyone has the same parameters
include timeout.ini # Timeout will be defined in this file

**.packetBurstifier[*].maxSize = 125000000B
**.packetBurstifier[*].numPackets = 1000000000
**.packetBurstifier[*].minOffset = 0.00001024s 
**.packetBurstifier[*].maxOffset = 0.0001024s # Time BCP needs to travel across the worst path in the network (5 nodes) x 10g = 64
**.packetBurstifier[*].minSizeWithPadding = 8B
**.packetBurstifier[*].overflowLastPacket = true
**.packetBurstifier[*].cteHeader = 8B
**.packetBurstifier[*].varHeader = 1B
# Burstifier's labels
**.edge*.**.packetBurstifier[0].destLabel = 1
**.edge*.**.packetBurstifier[1].destLabel = 2
**.edge*.**.packetBurstifier[2].destLabel = 3
**.edge*.**.packetBurstifier[3].destLabel = 4
**.edge*.**.packetBurstifier[4].destLabel = 5

# Sender configuration
**.sender.BCPSize = 256B #BCP size
**.sender.maxSchedBurstSize = 0 # Maximum size of scheduled burst queue (0 = unlimited)
**.sender.maxSchedBurstElems = 0 # Maximum number of queued bursts (0 = unlimited)
**.sender.testing = false # Sender won't be used in a testing network


# Core Nodes Initialization
#==========================

#Full wavelength conversion for all cores
**.core*.inputColours = ""
**.core*.outputColours = ""

# OE/EO conversion delays
**.OEConversionDelay = 0
**.EOConversionDelay = 0
**.BCPProcessingDelay = 0

#Host Initialization
#===================

# ip settings
**.ip.procDelay = 0

# ARP configuration
**.arp.cacheTimeout = 100s

# Ethernet NIC configuration
**.eth[*].mac.txrate = 1e10bps

# Queues
**.ppp[*].queue.frameCapacity = 100000000
**.eth[*].queue.frameCapacity = 100000000

# Host Applications Initialization
#=================================

# udp app
# 4 UDP apps for each host. One app for each destination available
**.numUdpApps = 4
**.host*.udpApp[*].typename = "UDPBasicApp"

#**.host*.udpApp[*].localPort = 10000
**.host*.udpApp[*].destPort = 10000

**.host1.udpApp[0].destAddresses = "host2"
**.host1.udpApp[1].destAddresses = "host3"
**.host1.udpApp[2].destAddresses = "host4"
**.host1.udpApp[3].destAddresses = "host5"

**.host2.udpApp[0].destAddresses = "host1"
**.host2.udpApp[1].destAddresses = "host3"
**.host2.udpApp[2].destAddresses = "host4"
**.host2.udpApp[3].destAddresses = "host5"

**.host3.udpApp[0].destAddresses = "host1"
**.host3.udpApp[1].destAddresses = "host2"
**.host3.udpApp[2].destAddresses = "host4"
**.host3.udpApp[3].destAddresses = "host5"

**.host4.udpApp[0].destAddresses = "host1"
**.host4.udpApp[1].destAddresses = "host2"
**.host4.udpApp[2].destAddresses = "host3"
**.host4.udpApp[3].destAddresses = "host5"

**.host5.udpApp[0].destAddresses = "host1"
**.host5.udpApp[1].destAddresses = "host2"
**.host5.udpApp[2].destAddresses = "host3"
**.host5.udpApp[3].destAddresses = "host4"

**.messageLength = 1472B  # Maximum message size avoiding Ethernet fragmentation: 1472 bytes + 20 (IP) + 8 (UDP) and then convert to bits

include params.ini

#Specific parameters for each run available
include run.ini